NDPIS/Case4/WithDG/Case4_WithDG.dss
Clear

new circuit.case4_WithDG
basekv=11.4 pu=1.000 phases=3 bus1=SourceBus.1.2.3
~ Angle=0    BaseFreq=60
~ MVASC3=250   MVASC1=250

!LINECODES
redirect TP_LineCodes.dss

!LINE DEFINITIONS
New Line.650631    Phases=3 Bus1=SourceBus.1.2.3 Bus2=2.1.2.3 LineCode=500MCM Length=1.970 units=km 
New Line.650632    Phases=3 Bus1=2.1.2.3 Bus2=3.1.2.3 LineCode=477MCM Length=1.2 units=km
New Line.650633    Phases=3 Bus1=3.1.2.3 Bus2=4.1.2.3 LineCode=477MCM Length=0.5 units=km
New Line.650634    Phases=3 Bus1=4.1.2.3 Bus2=5.1.2.3 LineCode=477MCM Length=0.1 units=km
New Line.650635    Phases=3 Bus1=5.1.2.3 Bus2=6.1.2.3 LineCode=477MCM Length=2.51 units=km
New Line.650636    Phases=3 Bus1=6.1.2.3 Bus2=7.1.2.3 LineCode=500MCM Length=2.546 units=km

New Line.650637    Phases=3 Bus1=5.1.2.3 Bus2=8.1.2.3 LineCode=#2 Length=1.0 units=km
New Line.650638    Phases=1 Bus1=9.1 Bus2=10.1 LineCode=125mm2(1) Length=0.075 units=km

! Load Transformer
New Transformer.XFM1  Phases=1  Windings=2    XHL=2.2
~ wdg=1 bus=8.1    Conn=delta    kv=6.5818  kva=50   %r =0.441
~ wdg=2 bus=9.1    Conn=delta    kv=0.1270  kva=50   %r =0.441

!LOAD DEFINITIONS
New Load.1 Bus1=2.1.2.3      Phases=3 Conn=delta  Model=1 kV=11.4  kW=3600  kvar=-540  Vmaxpu=1.2  Vminpu=0.7
New Load.2 Bus1=3.1.2.3      Phases=3 Conn=delta  Model=1 kV=11.4  kW=1676  kvar=-1000   Vmaxpu=1.2  Vminpu=0.7
New Load.3 Bus1=5.1.2.3      Phases=3 Conn=delta  Model=1 kV=11.4  kW=2000  kvar=203  Vmaxpu=1.2  Vminpu=0.7
New Load.4 Bus1=6.1.2.3      Phases=3 Conn=delta  Model=1 kV=11.4  kW=1090  kvar=200  Vmaxpu=1.2  Vminpu=0.7

New Load.5 Bus1=10.1      Phases=1 Conn=delta  Model=1 kV=0.1270  kW=-27.0  kvar=0.0  Vmaxpu=1.2  Vminpu=0.7

Set VoltageBases = [11.4,0.22]

calcv
Solve

!---------------------------------------------------------------------------------------------------------------------------------------------------
!----------------Show some Results ----------------------------------------------------------------------------------------------------------
!---------------------------------------------------------------------------------------------------------------------------------------------------

Show Voltages LN Nodes
Show Powers kVA Elem
Export Voltages
