NDPIS/Case4/WithDG/case4_WithDG_Power_elem_kVA.txt

CIRCUIT ELEMENT POWER FLOW

(Power Flow into element from indicated Bus)

Power Delivery Elements

  Bus     Phase     kW     +j   kvar         kVA         PF

ELEMENT = "Vsource.SOURCE"
SOURCEBUS     1     -2815.0 +j    289.7     2829.9      -0.9947
SOURCEBUS     2     -2841.5 +j    290.8     2856.4      -0.9948
SOURCEBUS     3     -2841.5 +j    290.8     2856.3      -0.9948
   TERMINAL TOTAL . -8498.0 +j    871.3     8542.6      -0.9948
SOURCEBUS     0         0.0 +j      0.0        0.0       1.0000
SOURCEBUS     0         0.0 +j      0.0        0.0       1.0000
SOURCEBUS     0         0.0 +j      0.0        0.0       1.0000
   TERMINAL TOTAL .     0.0 +j      0.0        0.0       1.0000

ELEMENT = "Line.650631"
SOURCEBUS     1      2815.0 +j   -289.7     2829.9      -0.9947
SOURCEBUS     2      2841.5 +j   -290.8     2856.4      -0.9948
SOURCEBUS     3      2841.5 +j   -290.8     2856.3      -0.9948
   TERMINAL TOTAL .  8498.0 +j   -871.3     8542.6      -0.9948
2             1     -2775.9 +j    342.6     2797.0      -0.9925
2             2     -2801.0 +j    344.2     2822.0      -0.9925
2             3     -2800.9 +j    345.2     2822.1      -0.9925
   TERMINAL TOTAL . -8377.8 +j   1032.0     8441.1      -0.9925

ELEMENT = "Line.650632"
2             1      1575.6 +j   -163.0     1584.0      -0.9947
2             2      1601.3 +j   -164.3     1609.7      -0.9948
2             3      1601.2 +j   -164.8     1609.7      -0.9947
   TERMINAL TOTAL .  4778.1 +j   -492.1     4803.4      -0.9947
3             1     -1566.1 +j    188.2     1577.4      -0.9929
3             2     -1591.0 +j    190.7     1602.4      -0.9929
3             3     -1591.5 +j    191.4     1602.9      -0.9928
   TERMINAL TOTAL . -4748.6 +j    570.3     4782.7      -0.9929

ELEMENT = "Line.650633"
3             1      1007.0 +j    144.8     1017.4       0.9898
3             2      1032.7 +j    142.6     1042.5       0.9906
3             3      1033.1 +j    142.2     1042.8       0.9907
   TERMINAL TOTAL .  3072.8 +j    429.6     3102.7       0.9904
4             1     -1005.4 +j   -140.5     1015.1       0.9904
4             2     -1030.9 +j   -137.9     1040.1       0.9912
4             3     -1031.4 +j   -137.5     1040.5       0.9912
   TERMINAL TOTAL . -3067.6 +j   -415.9     3095.7       0.9909

ELEMENT = "Line.650634"
4             1      1005.4 +j    140.5     1015.1       0.9904
4             2      1030.9 +j    137.9     1040.1       0.9912
4             3      1031.4 +j    137.5     1040.5       0.9912
   TERMINAL TOTAL .  3067.6 +j    415.9     3095.7       0.9909
5             1     -1005.0 +j   -139.6     1014.7       0.9905
5             2     -1030.5 +j   -137.0     1039.6       0.9913
5             3     -1031.1 +j   -136.6     1040.1       0.9913
   TERMINAL TOTAL . -3066.6 +j   -413.2     3094.3       0.9910

ELEMENT = "Line.650635"
5             1       364.5 +j     70.0      371.2       0.9821
5             2       364.2 +j     69.5      370.8       0.9823
5             3       364.4 +j     69.4      371.0       0.9824
   TERMINAL TOTAL .  1093.2 +j    208.9     1113.0       0.9822
6             1      -363.4 +j    -67.0      369.5       0.9834
6             2      -363.1 +j    -66.5      369.2       0.9836
6             3      -363.3 +j    -66.4      369.3       0.9837
   TERMINAL TOTAL . -1089.8 +j   -200.0     1108.0       0.9836

ELEMENT = "Line.650636"
6             1         0.0 +j     -0.0        0.0      -0.9966
6             2        -0.0 +j      0.0        0.0      -0.9595
6             3        -0.0 +j      0.0        0.0      -0.9997
   TERMINAL TOTAL .    -0.0 +j      0.0        0.0      -0.9864
7             1        -0.0 +j      0.0        0.0      -0.9966
7             2         0.0 +j     -0.0        0.0      -0.9595
7             3         0.0 +j     -0.0        0.0      -0.9997
   TERMINAL TOTAL .     0.0 +j     -0.0        0.0      -0.9864

ELEMENT = "Line.650637"
5             1       -26.3 +j      1.4       26.4      -0.9987
5             2         0.0 +j     -0.0        0.0      -0.9376
5             3         0.0 +j      0.0        0.0       0.4624
   TERMINAL TOTAL .   -26.3 +j      1.4       26.4      -0.9987
8             1        26.3 +j     -1.3       26.4      -0.9987
8             2        -0.0 +j      0.0        0.0      -0.9376
8             3        -0.0 +j     -0.0        0.0       0.4625
   TERMINAL TOTAL .    26.3 +j     -1.3       26.4      -0.9987

ELEMENT = "Line.650638"
9             1       -26.5 +j      1.0       26.5      -0.9993
   TERMINAL TOTAL .   -26.5 +j      1.0       26.5      -0.9993
10            1        27.0 +j      0.0       27.0       1.0000
   TERMINAL TOTAL .    27.0 +j      0.0       27.0       1.0000

ELEMENT = "Transformer.XFM1"
8             1       -26.3 +j      1.3       26.4      -0.9987
8             0         0.0 +j      0.0        0.0       1.0000
   TERMINAL TOTAL .   -26.3 +j      1.3       26.4      -0.9987
9             1        26.5 +j     -1.0       26.5      -0.9993
9             0         0.0 +j      0.0        0.0       1.0000
   TERMINAL TOTAL .    26.5 +j     -1.0       26.5      -0.9993

= = = = = = = = = = = = = = = = = = =  = = = = = = = = = = =  = =

Power Conversion Elements

  Bus     Phase     kW   +j  kvar         kVA         PF

ELEMENT = "Load.1"
2             1    1200.4 +j -179.8     1213.8      -0.9890
2             2    1199.7 +j -180.1     1213.2      -0.9889
2             3    1199.7 +j -180.5     1213.2      -0.9889
  TERMINAL TOTAL  .  3599.8 +j   -540.3     3640.1      -0.9889

ELEMENT = "Load.2"
3             1     559.1 +j -333.1      650.8      -0.8590
3             2     558.3 +j -333.3      650.3      -0.8586
3             3     558.4 +j -333.7      650.5      -0.8584
  TERMINAL TOTAL  .  1675.8 +j  -1000.2     1951.5      -0.8587

ELEMENT = "Load.3"
5             1     666.9 +j   68.2      670.4       0.9948
5             2     666.3 +j   67.4      669.7       0.9949
5             3     666.7 +j   67.1      670.0       0.9950
  TERMINAL TOTAL  .  1999.9 +j    202.7     2010.1       0.9949

ELEMENT = "Load.4"
6             1     363.4 +j   67.0      369.5       0.9834
6             2     363.2 +j   66.5      369.2       0.9837
6             3     363.4 +j   66.4      369.4       0.9837
  TERMINAL TOTAL  .  1089.9 +j    199.8     1108.1       0.9836

ELEMENT = "Load.5"
10            1     -27.0 +j    0.0       27.0      -1.0000
10            0       0.0 +j    0.0        0.0       1.0000
  TERMINAL TOTAL  .   -27.0 +j      0.0       27.0      -1.0000


Total Circuit Losses =  160.0 +j  265.6
