NDPIS/Case4/WithDG/case4_WithDG_VLN_Node.Txt

LINE-GROUND and LINE-LINE VOLTAGES BY BUS & NODE

Bus       Node    VLN (kV)   Angle      pu     Base kV    Node-Node   VLL (kV)  Angle      pu

SOURCEBUS 1       6.5462 /_   -1.9   0.99459    11.400        1-2     11.339 /_   28.1   0.99464
   -      2       6.5456 /_ -122.0    0.9945    11.400        2-3     11.337 /_  -92.0   0.99451
   -      3       6.5456 /_  118.0    0.9945    11.400        3-1     11.337 /_  148.1   0.99445
2 ....... 1       6.4702 /_   -3.1   0.98304    11.400        1-2     11.205 /_   26.9    0.9829
   -      2        6.467 /_ -123.1   0.98256    11.400        2-3     11.202 /_  -93.1   0.98266
   -      3       6.4671 /_  116.9   0.98257    11.400        3-1     11.202 /_  146.9   0.98261
3 ....... 1        6.443 /_   -4.0   0.97892    11.400        1-2     11.158 /_   25.9   0.97876
   -      2       6.4378 /_ -124.1   0.97813    11.400        2-3     11.154 /_  -94.1    0.9784
   -      3       6.4399 /_  115.9   0.97844    11.400        3-1     11.153 /_  145.9   0.97832
4 ....... 1       6.4288 /_   -4.3   0.97675    11.400        1-2     11.133 /_   25.7    0.9766
   -      2       6.4228 /_ -124.3   0.97584    11.400        2-3     11.129 /_  -94.3   0.97619
   -      3       6.4257 /_  115.6   0.97628    11.400        3-1     11.127 /_  145.7   0.97609
5 ....... 1       6.4259 /_   -4.3   0.97632    11.400        1-2     11.128 /_   25.6   0.97617
   -      2       6.4198 /_ -124.4   0.97538    11.400        2-3     11.124 /_  -94.4   0.97575
   -      3       6.4228 /_  115.6   0.97585    11.400        3-1     11.122 /_  145.6   0.97564
6 ....... 1       6.3974 /_   -4.7   0.97198    11.400        1-2     11.079 /_   25.2   0.97183
   -      2       6.3913 /_ -124.8   0.97105    11.400        2-3     11.074 /_  -94.8   0.97142
   -      3       6.3944 /_  115.2   0.97152    11.400        3-1     11.073 /_  145.2   0.97131
7 ....... 1       6.3974 /_   -4.7   0.97198    11.400        1-2     11.079 /_   25.2   0.97183
   -      2       6.3913 /_ -124.8   0.97105    11.400        2-3     11.074 /_  -94.8   0.97142
   -      3       6.3944 /_  115.2   0.97152    11.400        3-1     11.073 /_  145.2   0.97131
8 ....... 1       6.4304 /_   -4.3     0.977    11.400        1-2     11.133 /_   25.6   0.97655
   -      2       6.4182 /_ -124.4   0.97515    11.400        2-3     11.124 /_  -94.4   0.97575
   -      3       6.4237 /_  115.6   0.97599    11.400        3-1     11.125 /_  145.7   0.97584
9 ....... 1      0.12462 /_   -3.6    0.9811     0.220
10 ...... 1      0.12703 /_   -1.4    1.0001     0.220
